Version 4
SHEET 1 880 680
WIRE 176 16 96 16
WIRE 400 16 176 16
WIRE 480 16 400 16
WIRE 720 16 480 16
WIRE 96 64 96 16
WIRE 176 64 176 16
WIRE 400 64 400 16
WIRE 480 64 480 16
WIRE 720 128 720 16
WIRE 96 192 96 144
WIRE 272 192 96 192
WIRE 480 192 480 144
WIRE 480 192 320 192
WIRE 320 224 320 192
WIRE 320 224 256 224
WIRE 96 240 96 192
WIRE 272 240 272 192
WIRE 320 240 272 240
WIRE 480 240 480 192
WIRE 176 288 176 144
WIRE 176 288 160 288
WIRE 192 288 176 288
WIRE 256 288 256 224
WIRE 320 288 320 240
WIRE 400 288 400 144
WIRE 400 288 384 288
WIRE 416 288 400 288
WIRE 96 384 96 336
WIRE 480 384 480 336
WIRE 480 384 96 384
WIRE 720 384 720 208
WIRE 720 384 480 384
WIRE 720 400 720 384
FLAG 720 400 0
SYMBOL voltage 720 112 R0
WINDOW 123 0 0 Left 0
WINDOW 39 0 0 Left 0
SYMATTR InstName V1
SYMATTR Value 24
SYMBOL res 160 48 R0
SYMATTR InstName R1
SYMATTR Value 30k
SYMBOL res 384 48 R0
SYMATTR InstName R2
SYMATTR Value 30k
SYMBOL res 464 48 R0
SYMATTR InstName R3
SYMATTR Value 680
SYMBOL res 80 48 R0
SYMATTR InstName R4
SYMATTR Value 680
SYMBOL cap 256 272 R90
WINDOW 0 0 32 VBottom 2
WINDOW 3 32 32 VTop 2
SYMATTR InstName C1
SYMATTR Value 47µ
SYMBOL cap 384 272 R90
WINDOW 0 0 32 VBottom 2
WINDOW 3 32 32 VTop 2
SYMATTR InstName C2
SYMATTR Value 47µ
SYMBOL npn 160 240 M0
SYMATTR InstName Q1
SYMATTR Value 2N2222
SYMBOL npn 416 240 R0
SYMATTR InstName Q2
SYMATTR Value 2N2222
TEXT 12 408 Left 2 !.tran 5
